# MODFLOW2000 Discretization File
 1  1  1  2  1  2
 0 0
         0  1000.000(10E12.4)                    0     DELTA-X or C
         0  1000.000(10E12.4)                    0     DELTA-Y or R
         0     5.000(10e12.4)                   -1     TOP of Model
         0    -5.000(10e12.4)                   -1     BOTTOM of Layer   1
    86400.0   144  1.0  SS 01
    86400.0   144  1.0  TR 02
